.model MbreakN-X NMOS kp = 50u vto = 1V 
*$
