.model MbreakN-X NMOS vto = 1 kp = 50u 
*$
.model MbreakN-X1 NMOS vto = 1 kp = 50u 
*$
