* OrCAD Model Editor - Version 9.1

*$
.model MbreakN-X NMOS vto = 2V kp = 2m 
*$
