.model MbreakN-X NMOS vto = 2V kp = 2m 
*$
